data_IRMOF-1
_symmetry_space_group_name_H-M    'P 1'
_symmetry_Int_Tables_number       1
_cell_length_a                    25.83200
_cell_length_b                    25.83200
_cell_length_c                    25.83200
_cell_angle_alpha                 90.0
_cell_angle_beta                  90.0
_cell_angle_gamma                 90.0

loop_
_atom_site_label
_atom_site_type_symbol
_atom_site_fract_x
_atom_site_fract_y
_atom_site_fract_z
Zn_a Zn_a 0.29343 0.20672 0.20672
Zn_a Zn_a 0.79359 0.29343 0.20672
Zn_a Zn_a 0.70649 0.79359 0.20672
Zn_a Zn_a 0.20672 0.70649 0.20672
Zn_a Zn_a 0.29343 0.79359 0.79359
Zn_a Zn_a 0.79359 0.70649 0.79359
Zn_a Zn_a 0.70649 0.20672 0.79359
Zn_a Zn_a 0.20672 0.29343 0.79359
Zn_a Zn_a 0.20672 0.29343 0.20672
Zn_a Zn_a 0.20672 0.79359 0.29343
Zn_a Zn_a 0.20672 0.70649 0.79359
Zn_a Zn_a 0.20672 0.20672 0.70649
Zn_a Zn_a 0.79359 0.29343 0.79359
Zn_a Zn_a 0.79359 0.79359 0.70649
Zn_a Zn_a 0.79359 0.70649 0.20672
Zn_a Zn_a 0.79359 0.20672 0.29343
Zn_a Zn_a 0.70649 0.20672 0.20672
Zn_a Zn_a 0.20672 0.20672 0.29343
Zn_a Zn_a 0.29343 0.20672 0.79359
Zn_a Zn_a 0.79359 0.20672 0.70649
Zn_a Zn_a 0.70649 0.79359 0.79359
Zn_a Zn_a 0.20672 0.79359 0.70649
Zn_a Zn_a 0.29343 0.79359 0.20672
Zn_a Zn_a 0.79359 0.79359 0.29343
Zn_a Zn_a 0.29343 0.70649 0.70649
Zn_a Zn_a 0.70649 0.29343 0.70649
Zn_a Zn_a 0.29343 0.29343 0.29343
Zn_a Zn_a 0.70649 0.70649 0.29343
Zn_a Zn_a 0.70649 0.70649 0.70649
Zn_a Zn_a 0.29343 0.70649 0.29343
Zn_a Zn_a 0.70649 0.29343 0.29343
Zn_a Zn_a 0.29343 0.29343 0.70649
O_a O_a 0.25008 0.25008 0.25008
O_a O_a 0.74985 0.25008 0.25008
O_a O_a 0.74985 0.74985 0.25008
O_a O_a 0.25008 0.74985 0.25008
O_a O_a 0.25008 0.74985 0.74985
O_a O_a 0.74985 0.74985 0.74985
O_a O_a 0.74985 0.25008 0.74985
O_a O_a 0.25008 0.25008 0.74985
O_b O_b 0.28182 0.21795 0.13394
O_b O_b 0.78198 0.28182 0.13394
O_b O_b 0.71810 0.78198 0.13394
O_b O_b 0.21795 0.71810 0.13394
O_b O_b 0.28182 0.78198 0.86598
O_b O_b 0.78198 0.71810 0.86598
O_b O_b 0.71810 0.21795 0.86598
O_b O_b 0.21795 0.28182 0.86598
O_b O_b 0.13394 0.28182 0.21795
O_b O_b 0.13394 0.78198 0.28182
O_b O_b 0.13394 0.71810 0.78198
O_b O_b 0.13394 0.21795 0.71810
O_b O_b 0.86598 0.28182 0.78198
O_b O_b 0.86598 0.78198 0.71810
O_b O_b 0.86598 0.71810 0.21795
O_b O_b 0.86598 0.21795 0.28182
O_b O_b 0.71810 0.13394 0.21795
O_b O_b 0.21795 0.13394 0.28182
O_b O_b 0.28182 0.13394 0.78198
O_b O_b 0.78198 0.13394 0.71810
O_b O_b 0.71810 0.86598 0.78198
O_b O_b 0.21795 0.86598 0.71810
O_b O_b 0.28182 0.86598 0.21795
O_b O_b 0.78198 0.86598 0.28182
O_b O_b 0.71810 0.78198 0.86598
O_b O_b 0.21795 0.71810 0.86598
O_b O_b 0.28182 0.21795 0.86598
O_b O_b 0.78198 0.28182 0.86598
O_b O_b 0.71810 0.21795 0.13394
O_b O_b 0.21795 0.28182 0.13394
O_b O_b 0.28182 0.78198 0.13394
O_b O_b 0.78198 0.71810 0.13394
O_b O_b 0.86598 0.71810 0.78198
O_b O_b 0.86598 0.21795 0.71810
O_b O_b 0.86598 0.28182 0.21795
O_b O_b 0.86598 0.78198 0.28182
O_b O_b 0.13394 0.71810 0.21795
O_b O_b 0.13394 0.21795 0.28182
O_b O_b 0.13394 0.28182 0.78198
O_b O_b 0.13394 0.78198 0.71810
O_b O_b 0.28182 0.86598 0.78198
O_b O_b 0.78198 0.86598 0.71810
O_b O_b 0.71810 0.86598 0.21795
O_b O_b 0.21795 0.86598 0.28182
O_b O_b 0.28182 0.13394 0.21795
O_b O_b 0.78198 0.13394 0.28182
O_b O_b 0.71810 0.13394 0.78198
O_b O_b 0.21795 0.13394 0.71810
O_b O_b 0.28182 0.71810 0.63410
O_b O_b 0.78198 0.78198 0.63410
O_b O_b 0.71810 0.28182 0.63410
O_b O_b 0.21795 0.21795 0.63410
O_b O_b 0.28182 0.28182 0.36583
O_b O_b 0.78198 0.21795 0.36583
O_b O_b 0.71810 0.71810 0.36583
O_b O_b 0.21795 0.78198 0.36583
O_b O_b 0.71810 0.63410 0.71810
O_b O_b 0.21795 0.63410 0.78198
O_b O_b 0.28182 0.63410 0.28182
O_b O_b 0.78198 0.63410 0.21795
O_b O_b 0.71810 0.36583 0.28182
O_b O_b 0.21795 0.36583 0.21795
O_b O_b 0.28182 0.36583 0.71810
O_b O_b 0.78198 0.36583 0.78198
O_b O_b 0.71810 0.28182 0.36583
O_b O_b 0.21795 0.21795 0.36583
O_b O_b 0.28182 0.71810 0.36583
O_b O_b 0.78198 0.78198 0.36583
O_b O_b 0.71810 0.71810 0.63410
O_b O_b 0.21795 0.78198 0.63410
O_b O_b 0.28182 0.28182 0.63410
O_b O_b 0.78198 0.21795 0.63410
O_b O_b 0.28182 0.36583 0.28182
O_b O_b 0.78198 0.36583 0.21795
O_b O_b 0.71810 0.36583 0.71810
O_b O_b 0.21795 0.36583 0.78198
O_b O_b 0.28182 0.63410 0.71810
O_b O_b 0.78198 0.63410 0.78198
O_b O_b 0.71810 0.63410 0.28182
O_b O_b 0.21795 0.63410 0.21795
O_b O_b 0.63410 0.28182 0.71810
O_b O_b 0.63410 0.78198 0.78198
O_b O_b 0.63410 0.71810 0.28182
O_b O_b 0.63410 0.21795 0.21795
O_b O_b 0.36583 0.28182 0.28182
O_b O_b 0.36583 0.78198 0.21795
O_b O_b 0.36583 0.71810 0.71810
O_b O_b 0.36583 0.21795 0.78198
O_b O_b 0.36583 0.71810 0.28182
O_b O_b 0.36583 0.21795 0.21795
O_b O_b 0.36583 0.28182 0.71810
O_b O_b 0.36583 0.78198 0.78198
O_b O_b 0.63410 0.71810 0.71810
O_b O_b 0.63410 0.21795 0.78198
O_b O_b 0.63410 0.28182 0.28182
O_b O_b 0.63410 0.78198 0.21795
C_a C_a 0.25008 0.25008 0.11149
C_a C_a 0.74985 0.25008 0.11149
C_a C_a 0.74985 0.74985 0.11149
C_a C_a 0.25008 0.74985 0.11149
C_a C_a 0.25008 0.74985 0.88882
C_a C_a 0.74985 0.74985 0.88882
C_a C_a 0.74985 0.25008 0.88882
C_a C_a 0.25008 0.25008 0.88882
C_a C_a 0.11149 0.25008 0.25008
C_a C_a 0.11149 0.74985 0.25008
C_a C_a 0.11149 0.74985 0.74985
C_a C_a 0.11149 0.25008 0.74985
C_a C_a 0.88882 0.25008 0.74985
C_a C_a 0.88882 0.74985 0.74985
C_a C_a 0.88882 0.74985 0.25008
C_a C_a 0.88882 0.25008 0.25008
C_a C_a 0.74985 0.11149 0.25008
C_a C_a 0.25008 0.11149 0.25008
C_a C_a 0.25008 0.11149 0.74985
C_a C_a 0.74985 0.11149 0.74985
C_a C_a 0.74985 0.88882 0.74985
C_a C_a 0.25008 0.88882 0.74985
C_a C_a 0.25008 0.88882 0.25008
C_a C_a 0.74985 0.88882 0.25008
C_a C_a 0.25008 0.74985 0.61126
C_a C_a 0.74985 0.74985 0.61126
C_a C_a 0.74985 0.25008 0.61126
C_a C_a 0.25008 0.25008 0.61126
C_a C_a 0.25008 0.25008 0.38867
C_a C_a 0.74985 0.25008 0.38867
C_a C_a 0.74985 0.74985 0.38867
C_a C_a 0.25008 0.74985 0.38867
C_a C_a 0.74985 0.61126 0.74985
C_a C_a 0.25008 0.61126 0.74985
C_a C_a 0.25008 0.61126 0.25008
C_a C_a 0.74985 0.61126 0.25008
C_a C_a 0.74985 0.38867 0.25008
C_a C_a 0.25008 0.38867 0.25008
C_a C_a 0.25008 0.38867 0.74985
C_a C_a 0.74985 0.38867 0.74985
C_a C_a 0.61126 0.25008 0.74985
C_a C_a 0.61126 0.74985 0.74985
C_a C_a 0.61126 0.74985 0.25008
C_a C_a 0.61126 0.25008 0.25008
C_a C_a 0.38867 0.25008 0.25008
C_a C_a 0.38867 0.74985 0.25008
C_a C_a 0.38867 0.74985 0.74985
C_a C_a 0.38867 0.25008 0.74985
C_b C_b 0.25008 0.25008 0.05381
C_b C_b 0.74985 0.25008 0.05381
C_b C_b 0.74985 0.74985 0.05381
C_b C_b 0.25008 0.74985 0.05381
C_b C_b 0.25008 0.74985 0.94611
C_b C_b 0.74985 0.74985 0.94611
C_b C_b 0.74985 0.25008 0.94611
C_b C_b 0.25008 0.25008 0.94611
C_b C_b 0.05381 0.25008 0.25008
C_b C_b 0.05381 0.74985 0.25008
C_b C_b 0.05381 0.74985 0.74985
C_b C_b 0.05381 0.25008 0.74985
C_b C_b 0.94611 0.25008 0.74985
C_b C_b 0.94611 0.74985 0.74985
C_b C_b 0.94611 0.74985 0.25008
C_b C_b 0.94611 0.25008 0.25008
C_b C_b 0.74985 0.05381 0.25008
C_b C_b 0.25008 0.05381 0.25008
C_b C_b 0.25008 0.05381 0.74985
C_b C_b 0.74985 0.05381 0.74985
C_b C_b 0.74985 0.94611 0.74985
C_b C_b 0.25008 0.94611 0.74985
C_b C_b 0.25008 0.94611 0.25008
C_b C_b 0.74985 0.94611 0.25008
C_b C_b 0.25008 0.74985 0.55396
C_b C_b 0.74985 0.74985 0.55396
C_b C_b 0.74985 0.25008 0.55396
C_b C_b 0.25008 0.25008 0.55396
C_b C_b 0.25008 0.25008 0.44635
C_b C_b 0.74985 0.25008 0.44635
C_b C_b 0.74985 0.74985 0.44635
C_b C_b 0.25008 0.74985 0.44635
C_b C_b 0.74985 0.55396 0.74985
C_b C_b 0.25008 0.55396 0.74985
C_b C_b 0.25008 0.55396 0.25008
C_b C_b 0.74985 0.55396 0.25008
C_b C_b 0.74985 0.44635 0.25008
C_b C_b 0.25008 0.44635 0.25008
C_b C_b 0.25008 0.44635 0.74985
C_b C_b 0.74985 0.44635 0.74985
C_b C_b 0.55396 0.25008 0.74985
C_b C_b 0.55396 0.74985 0.74985
C_b C_b 0.55396 0.74985 0.25008
C_b C_b 0.55396 0.25008 0.25008
C_b C_b 0.44635 0.25008 0.25008
C_b C_b 0.44635 0.74985 0.25008
C_b C_b 0.44635 0.74985 0.74985
C_b C_b 0.44635 0.25008 0.74985
C_c C_c 0.28298 0.21717 0.02671
C_c C_c 0.78275 0.28298 0.02671
C_c C_c 0.71694 0.78275 0.02671
C_c C_c 0.21717 0.71694 0.02671
C_c C_c 0.28298 0.78275 0.97321
C_c C_c 0.78275 0.71694 0.97321
C_c C_c 0.71694 0.21717 0.97321
C_c C_c 0.21717 0.28298 0.97321
C_c C_c 0.02671 0.28298 0.21717
C_c C_c 0.02671 0.78275 0.28298
C_c C_c 0.02671 0.71694 0.78275
C_c C_c 0.02671 0.21717 0.71694
C_c C_c 0.97321 0.28298 0.78275
C_c C_c 0.97321 0.78275 0.71694
C_c C_c 0.97321 0.71694 0.21717
C_c C_c 0.97321 0.21717 0.28298
C_c C_c 0.71694 0.02671 0.21717
C_c C_c 0.21717 0.02671 0.28298
C_c C_c 0.28298 0.02671 0.78275
C_c C_c 0.78275 0.02671 0.71694
C_c C_c 0.71694 0.97321 0.78275
C_c C_c 0.21717 0.97321 0.71694
C_c C_c 0.28298 0.97321 0.21717
C_c C_c 0.78275 0.97321 0.28298
C_c C_c 0.71694 0.78275 0.97321
C_c C_c 0.21717 0.71694 0.97321
C_c C_c 0.28298 0.21717 0.97321
C_c C_c 0.78275 0.28298 0.97321
C_c C_c 0.71694 0.21717 0.02671
C_c C_c 0.21717 0.28298 0.02671
C_c C_c 0.28298 0.78275 0.02671
C_c C_c 0.78275 0.71694 0.02671
C_c C_c 0.97321 0.71694 0.78275
C_c C_c 0.97321 0.21717 0.71694
C_c C_c 0.97321 0.28298 0.21717
C_c C_c 0.97321 0.78275 0.28298
C_c C_c 0.02671 0.71694 0.21717
C_c C_c 0.02671 0.21717 0.28298
C_c C_c 0.02671 0.28298 0.78275
C_c C_c 0.02671 0.78275 0.71694
C_c C_c 0.28298 0.97321 0.78275
C_c C_c 0.78275 0.97321 0.71694
C_c C_c 0.71694 0.97321 0.21717
C_c C_c 0.21717 0.97321 0.28298
C_c C_c 0.28298 0.02671 0.21717
C_c C_c 0.78275 0.02671 0.28298
C_c C_c 0.71694 0.02671 0.78275
C_c C_c 0.21717 0.02671 0.71694
C_c C_c 0.28298 0.71694 0.52687
C_c C_c 0.78275 0.78275 0.52687
C_c C_c 0.71694 0.28298 0.52687
C_c C_c 0.21717 0.21717 0.52687
C_c C_c 0.28298 0.28298 0.47306
C_c C_c 0.78275 0.21717 0.47306
C_c C_c 0.71694 0.71694 0.47306
C_c C_c 0.21717 0.78275 0.47306
C_c C_c 0.71694 0.52687 0.71694
C_c C_c 0.21717 0.52687 0.78275
C_c C_c 0.28298 0.52687 0.28298
C_c C_c 0.78275 0.52687 0.21717
C_c C_c 0.71694 0.47306 0.28298
C_c C_c 0.21717 0.47306 0.21717
C_c C_c 0.28298 0.47306 0.71694
C_c C_c 0.78275 0.47306 0.78275
C_c C_c 0.71694 0.28298 0.47306
C_c C_c 0.21717 0.21717 0.47306
C_c C_c 0.28298 0.71694 0.47306
C_c C_c 0.78275 0.78275 0.47306
C_c C_c 0.71694 0.71694 0.52687
C_c C_c 0.21717 0.78275 0.52687
C_c C_c 0.28298 0.28298 0.52687
C_c C_c 0.78275 0.21717 0.52687
C_c C_c 0.28298 0.47306 0.28298
C_c C_c 0.78275 0.47306 0.21717
C_c C_c 0.71694 0.47306 0.71694
C_c C_c 0.21717 0.47306 0.78275
C_c C_c 0.28298 0.52687 0.71694
C_c C_c 0.78275 0.52687 0.78275
C_c C_c 0.71694 0.52687 0.28298
C_c C_c 0.21717 0.52687 0.21717
C_c C_c 0.52687 0.28298 0.71694
C_c C_c 0.52687 0.78275 0.78275
C_c C_c 0.52687 0.71694 0.28298
C_c C_c 0.52687 0.21717 0.21717
C_c C_c 0.47306 0.28298 0.28298
C_c C_c 0.47306 0.78275 0.21717
C_c C_c 0.47306 0.71694 0.71694
C_c C_c 0.47306 0.21717 0.78275
C_c C_c 0.47306 0.71694 0.28298
C_c C_c 0.47306 0.21717 0.21717
C_c C_c 0.47306 0.28298 0.71694
C_c C_c 0.47306 0.78275 0.78275
C_c C_c 0.52687 0.71694 0.71694
C_c C_c 0.52687 0.21717 0.78275
C_c C_c 0.52687 0.28298 0.28298
C_c C_c 0.52687 0.78275 0.21717
H_a H_a 0.30505 0.19511 0.04491
H_a H_a 0.80482 0.30505 0.04491
H_a H_a 0.69526 0.80482 0.04491
H_a H_a 0.19511 0.69526 0.04491
H_a H_a 0.30505 0.80482 0.95502
H_a H_a 0.80482 0.69526 0.95502
H_a H_a 0.69526 0.19511 0.95502
H_a H_a 0.19511 0.30505 0.95502
H_a H_a 0.04491 0.30505 0.19511
H_a H_a 0.04491 0.80482 0.30505
H_a H_a 0.04491 0.69526 0.80482
H_a H_a 0.04491 0.19511 0.69526
H_a H_a 0.95502 0.30505 0.80482
H_a H_a 0.95502 0.80482 0.69526
H_a H_a 0.95502 0.69526 0.19511
H_a H_a 0.95502 0.19511 0.30505
H_a H_a 0.69526 0.04491 0.19511
H_a H_a 0.19511 0.04491 0.30505
H_a H_a 0.30505 0.04491 0.80482
H_a H_a 0.80482 0.04491 0.69526
H_a H_a 0.69526 0.95502 0.80482
H_a H_a 0.19511 0.95502 0.69526
H_a H_a 0.30505 0.95502 0.19511
H_a H_a 0.80482 0.95502 0.30505
H_a H_a 0.69526 0.80482 0.95502
H_a H_a 0.19511 0.69526 0.95502
H_a H_a 0.30505 0.19511 0.95502
H_a H_a 0.80482 0.30505 0.95502
H_a H_a 0.69526 0.19511 0.04491
H_a H_a 0.19511 0.30505 0.04491
H_a H_a 0.30505 0.80482 0.04491
H_a H_a 0.80482 0.69526 0.04491
H_a H_a 0.95502 0.69526 0.80482
H_a H_a 0.95502 0.19511 0.69526
H_a H_a 0.95502 0.30505 0.19511
H_a H_a 0.95502 0.80482 0.30505
H_a H_a 0.04491 0.69526 0.19511
H_a H_a 0.04491 0.19511 0.30505
H_a H_a 0.04491 0.30505 0.80482
H_a H_a 0.04491 0.80482 0.69526
H_a H_a 0.30505 0.95502 0.80482
H_a H_a 0.80482 0.95502 0.69526
H_a H_a 0.69526 0.95502 0.19511
H_a H_a 0.19511 0.95502 0.30505
H_a H_a 0.30505 0.04491 0.19511
H_a H_a 0.80482 0.04491 0.30505
H_a H_a 0.69526 0.04491 0.80482
H_a H_a 0.19511 0.04491 0.69526
H_a H_a 0.30505 0.69526 0.54467
H_a H_a 0.80482 0.80482 0.54467
H_a H_a 0.69526 0.30505 0.54467
H_a H_a 0.19511 0.19511 0.54467
H_a H_a 0.30505 0.30505 0.45525
H_a H_a 0.80482 0.19511 0.45525
H_a H_a 0.69526 0.69526 0.45525
H_a H_a 0.19511 0.80482 0.45525
H_a H_a 0.69526 0.54467 0.69526
H_a H_a 0.19511 0.54467 0.80482
H_a H_a 0.30505 0.54467 0.30505
H_a H_a 0.80482 0.54467 0.19511
H_a H_a 0.69526 0.45525 0.30505
H_a H_a 0.19511 0.45525 0.19511
H_a H_a 0.30505 0.45525 0.69526
H_a H_a 0.80482 0.45525 0.80482
H_a H_a 0.69526 0.30505 0.45525
H_a H_a 0.19511 0.19511 0.45525
H_a H_a 0.30505 0.69526 0.45525
H_a H_a 0.80482 0.80482 0.45525
H_a H_a 0.69526 0.69526 0.54467
H_a H_a 0.19511 0.80482 0.54467
H_a H_a 0.30505 0.30505 0.54467
H_a H_a 0.80482 0.19511 0.54467
H_a H_a 0.30505 0.45525 0.30505
H_a H_a 0.80482 0.45525 0.19511
H_a H_a 0.69526 0.45525 0.69526
H_a H_a 0.19511 0.45525 0.80482
H_a H_a 0.30505 0.54467 0.69526
H_a H_a 0.80482 0.54467 0.80482
H_a H_a 0.69526 0.54467 0.30505
H_a H_a 0.19511 0.54467 0.19511
H_a H_a 0.54467 0.30505 0.69526
H_a H_a 0.54467 0.80482 0.80482
H_a H_a 0.54467 0.69526 0.30505
H_a H_a 0.54467 0.19511 0.19511
H_a H_a 0.45525 0.30505 0.30505
H_a H_a 0.45525 0.80482 0.19511
H_a H_a 0.45525 0.69526 0.69526
H_a H_a 0.45525 0.19511 0.80482
H_a H_a 0.45525 0.69526 0.30505
H_a H_a 0.45525 0.19511 0.19511
H_a H_a 0.45525 0.30505 0.69526
H_a H_a 0.45525 0.80482 0.80482
H_a H_a 0.54467 0.69526 0.69526
H_a H_a 0.54467 0.19511 0.80482
H_a H_a 0.54467 0.30505 0.30505
H_a H_a 0.54467 0.80482 0.19511
